"ERGOM-MOM510 8 n.m. Baltic Sea coupled"
*AUTO*

"gridinfo%4yr%2mo",    -1,  "years",  1, "days", "time", 1, "months" 
"atmos_day%4yr%2mo",    1,  "hours", 1, "days", "time", 1, "months" 
"ice_day%4yr%2mo",      1,  "hours", 1, "days", "time", 1, "months" 
"ocean_day2d%4yr%2mo",  1,  "hours",   1, "days", "time", 1, "months" 
"ocean_day3d%4yr%2mo",  1,  "days", 1, "days", "time", 1, "months" 
"ocean_trps%4yr%2mo",   1,  "days", 1, "days", "time", 1, "months" 
"ergom_flux3d%4yr%2mo", 1,  "days", 1, "days", "time", 1, "months" 
"ergom_flux_sed%4yr%2mo",1, "days", 1, "days", "time", 1, "months" 
"ergom_flux_surf%4yr%2mo",1,"days", 1, "days", "time", 1, "months" 
"ocean_obc_w%4yr%2mo",  1,  "days", 1, "days", "time", 1, "months" 
"_GreatBelt%4yr%2mo       ", 1, "hours", 1, "days", "time", 1, "months" 
"_FehmarnBelt%4yr%2mo     ", 1, "hours", 1, "days", "time", 1, "months" 
"_AnholtE%4yr%2mo         ", 1, "hours", 1, "days", "time", 1, "months" 
"_LandskronaW%4yr%2mo     ", 1, "hours", 1, "days", "time", 1, "months" 
"_ArkonaBY2%4yr%2mo       ", 1, "hours", 1, "days", "time", 1, "months"
"_BornholmDeepBY5%4yr%2mo ", 1, "hours", 1, "days", "time", 1, "months" 
"_SEGotlandBasin%4yr%2mo  ", 1, "hours", 1, "days", "time", 1, "months" 
"_GdanskDeep%4yr%2mo      ", 1, "hours", 1, "days", "time", 1, "months" 
"_GotlandDeepBY15%4yr%2mo ", 1, "hours", 1, "days", "time", 1, "months" 
"_LandsortDeepBY31%4yr%2mo", 1, "hours", 1, "days", "time", 1, "months" 
"_BothnianSeaSR5%4yr%2mo  ", 1, "hours", 1, "days", "time", 1, "months" 
"_BothnianSeaUS3%4yr%2mo  ", 1, "hours", 1, "days", "time", 1, "months" 
"_BothnianBayF9%4yr%2mo   ", 1, "hours", 1, "days", "time", 1, "months" 
"_GulfFinlandLL7%4yr%2mo  ", 1, "hours", 1, "days", "time", 1, "months" 
"_GulfofFinlandF1%4yr%2mo ", 1, "hours", 1, "days", "time", 1, "months" 
"_GulfofRiga%4yr%2mo      ", 1, "hours", 1, "days", "time", 1, "months" 
#
#===========================================================================
#diagnostic field entries
#===========================================================================
# ocean model grid quantities (static fields and so not time averaged)
"ocean_model","geolon_t","geolon_t","gridinfo%4yr%2mo" ,"all",.false.,"none",2
"ocean_model","geolat_t","geolat_t","gridinfo%4yr%2mo" ,"all",.false.,"none",2
"ocean_model","geolon_c","geolon_c","gridinfo%4yr%2mo" ,"all",.false.,"none",2
"ocean_model","geolat_c","geolat_c","gridinfo%4yr%2mo" ,"all",.false.,"none",2
"ocean_model","area_t","area_t",    "gridinfo%4yr%2mo" ,"all",.false.,"none",2
"ocean_model","area_u","area_u",    "gridinfo%4yr%2mo" ,"all",.false.,"none",2
"ocean_model","ht","ht",            "gridinfo%4yr%2mo" ,"all",.false.,"none",2
"ocean_model","hu","hu",            "gridinfo%4yr%2mo" ,"all",.false.,"none",2
#======================================================================================
# 2D time means
#======================================================================================
"ocean_model","geolon_t","geolon_t","ocean_day2d%4yr%2mo" ,"all",.false.,"none",2
"ocean_model","geolat_t","geolat_t","ocean_day2d%4yr%2mo" ,"all",.false.,"none",2
"ocean_model","geolon_c","geolon_c","ocean_day2d%4yr%2mo" ,"all",.false.,"none",2
"ocean_model","geolat_c","geolat_c","ocean_day2d%4yr%2mo" ,"all",.false.,"none",2
"ocean_model","area_t","area_t",    "ocean_day2d%4yr%2mo" ,"all",.false.,"none",2
"ocean_model","area_u","area_u",    "ocean_day2d%4yr%2mo" ,"all",.false.,"none",2
"ocean_model","ht","ht",            "ocean_day2d%4yr%2mo" ,"all",.false.,"none",2
"ocean_model","hu","hu",            "ocean_day2d%4yr%2mo" ,"all",.false.,"none",2
# sea level (gauges)
"ocean_model","eta_t","eta_t",      "ocean_day2d%4yr%2mo", "all",.true.,"none",2
# mixed layer depths
"ocean_model","mld","mld",          "ocean_day2d%4yr%2mo", "all",.true.,"none",2
# surface forcing
"ocean_model","river","river",      "ocean_day2d%4yr%2mo", "all",.true.,"none",2
# wave model quantities
"ocean_model","windx_wave","windx_wave","ocean_day2d%4yr%2mo" ,"all",.true.,"none",2
"ocean_model","windy_wave","windy_wave","ocean_day2d%4yr%2mo" ,"all",.true.,"none",2
"ocean_model","xmom"      ,"xmom"      ,"ocean_day2d%4yr%2mo" ,"all",.true.,"none",2
"ocean_model","ymom"      ,"ymom"      ,"ocean_day2d%4yr%2mo" ,"all",.true.,"none",2
"ocean_model","height"    ,"height"    ,"ocean_day2d%4yr%2mo" ,"all",.true.,"none",2
"ocean_model","wave_p"    ,"wave_p"    ,"ocean_day2d%4yr%2mo" ,"all",.true.,"none",2
"ocean_model","wave_k"    ,"wave_k"    ,"ocean_day2d%4yr%2mo" ,"all",.true.,"none",2
"ocean_model","wave_s"    ,"wave_s"    ,"ocean_day2d%4yr%2mo" ,"all",.true.,"none",2
"ocean_model","wave_u"    ,"wave_u"    ,"ocean_day2d%4yr%2mo" ,"all",.true.,"none",2
"ocean_model","iter"    ,"iter"    ,"ocean_day2d%4yr%2mo" ,"all",.true.,"none",2
"ocean_model","current_wave_stress","current_wave_stress", "ocean_day2d%4yr%2mo" ,"all",.true.,"none",2
#======================================================================================
# 2D atmos time means
#======================================================================================
"ocean_model","geolon_t","geolon_t",   "atmos_day%4yr%2mo","all",.false.,"none",2
"ocean_model","geolat_t","geolat_t",   "atmos_day%4yr%2mo","all",.false.,"none",2
"ocean_model","geolon_c","geolon_c",   "atmos_day%4yr%2mo","all",.false.,"none",2
"ocean_model","geolat_c","geolat_c",   "atmos_day%4yr%2mo","all",.false.,"none",2
"ocean_model","area_t","area_t",       "atmos_day%4yr%2mo","all",.false.,"none",2
"ocean_model","area_u","area_u",       "atmos_day%4yr%2mo","all",.false.,"none",2
"ocean_model","ht","ht",               "atmos_day%4yr%2mo","all",.false.,"none",2
"ocean_model","hu","hu",               "atmos_day%4yr%2mo","all",.false.,"none",2
# atmos forcing
"ocean_model","patm_t","patm_t",       "atmos_day%4yr%2mo", "all",.true.,"none",2
"ocean_model","pme_net","pme_net",     "atmos_day%4yr%2mo", "all",.true.,"none",2
"ocean_model","tau_x","tau_x",         "atmos_day%4yr%2mo", "all",.true.,"none",2
"ocean_model","tau_y","tau_y",         "atmos_day%4yr%2mo", "all",.true.,"none",2
"ocean_model","swflx","swflx",         "atmos_day%4yr%2mo", "all",.true.,"none",2
"ocean_model","lw_heat","lw_heat",     "atmos_day%4yr%2mo", "all",.true.,"none",2
"ocean_model","sens_heat","sens_heat", "atmos_day%4yr%2mo", "all",.true.,"none",2
"ocean_model","evap_heat","evap_heat", "atmos_day%4yr%2mo", "all",.true.,"none",2
# bottom forcing
"ocean_model","drag_coeff","drag_coeff", "ocean_day2d%4yr%2mo","all",.true.,"none",2
#======================================================================================
# 3D tracer time means 
#======================================================================================
"ocean_model","geolon_t","geolon_t",    "ocean_day3d%4yr%2mo","all",.false.,"none",2
"ocean_model","geolat_t","geolat_t",    "ocean_day3d%4yr%2mo","all",.false.,"none",2
"ocean_model","geolon_c","geolon_c",    "ocean_day3d%4yr%2mo","all",.false.,"none",2
"ocean_model","geolat_c","geolat_c",    "ocean_day3d%4yr%2mo","all",.false.,"none",2
"ocean_model","area_t","area_t",        "ocean_day3d%4yr%2mo","all",.false.,"none",2
"ocean_model","area_u","area_u",        "ocean_day3d%4yr%2mo","all",.false.,"none",2
## t,s,u,v,w
"ocean_model","ht","ht",                "ocean_day3d%4yr%2mo","all",.false.,"none",2
"ocean_model","hu","hu",                "ocean_day3d%4yr%2mo","all",.false.,"none",2
"ocean_model","dzt","dzt",              "ocean_day3d%4yr%2mo","all",.true.,"none",2
"ocean_model","temp","temp",            "ocean_day3d%4yr%2mo","all",.true.,"none",2
#"ocean_model","pot_temp","pot_temp",    "ocean_day3d%4yr%2mo","all",.true.,"none",2
"ocean_model","salt","salt",            "ocean_day3d%4yr%2mo","all",.true.,"none",2
"ocean_model","u","u",                  "ocean_day3d%4yr%2mo","all",.true.,"none",2
"ocean_model","v","v",                  "ocean_day3d%4yr%2mo","all",.true.,"none",2
"ocean_model","tau_x","tau_x",                  "ocean_day3d%4yr%2mo","all",.true.,"none",2
"ocean_model","tau_y","tau_y",                  "ocean_day3d%4yr%2mo","all",.true.,"none",2
"ocean_model","wrhot","wrhot",          "ocean_day3d%4yr%2mo","all",.true.,"none",2
# biomodel 3d auxiliary variables
#"generic_ergom","k0_co2         ","k0_co2         ",        "ocean_day3d%4yr%2mo","all",.true.,"none",2
#"generic_ergom","k1_co2         ","k1_co2         ",        "ocean_day3d%4yr%2mo","all",.true.,"none",2
#"generic_ergom","k2_co2         ","k2_co2         ",        "ocean_day3d%4yr%2mo","all",.true.,"none",2
#"generic_ergom","alk_boron      ","alk_boron      ",        "ocean_day3d%4yr%2mo","all",.true.,"none",2
#"generic_ergom","alk_h2s        ","alk_h2s        ",        "ocean_day3d%4yr%2mo","all",.true.,"none",2
#"generic_ergom","alk_water      ","alk_water      ",        "ocean_day3d%4yr%2mo","all",.true.,"none",2
#"generic_ergom","alk_po4        ","alk_po4        ",        "ocean_day3d%4yr%2mo","all",.true.,"none",2
#"generic_ergom","alk_co2        ","alk_co2        ",        "ocean_day3d%4yr%2mo","all",.true.,"none",2
#"generic_ergom","alk_residual   ","alk_residual   ",        "ocean_day3d%4yr%2mo","all",.true.,"none",2
#"generic_ergom","dalkp_dh3o     ","dalkp_dh3o     ",        "ocean_day3d%4yr%2mo","all",.true.,"none",2
#"generic_ergom","dalkc_dh3o     ","dalkc_dh3o     ",        "ocean_day3d%4yr%2mo","all",.true.,"none",2
#"generic_ergom","dalkresidual_dpH","dalkresidual_dpH",        "ocean_day3d%4yr%2mo","all",.true.,"none",2
"generic_ergom","ph             ","ph             ",        "ocean_day3d%4yr%2mo","all",.true.,"none",2
"generic_ergom","h3o            ","h3o            ",        "ocean_day3d%4yr%2mo","all",.true.,"none",2
"generic_ergom","pco2           ","pco2           ",        "ocean_day3d%4yr%2mo","all",.true.,"none",2
"generic_ergom","co2            ","co2            ",        "ocean_day3d%4yr%2mo","all",.true.,"none",2
"generic_ergom","t_dic_stf",        "sfc_flux_t_dic ",        "ocean_day3d%4yr%2mo", "all",.true.,"none",2
# biomodel 3d variables
"generic_ergom","t_n2","t_n2",     "ocean_day3d%4yr%2mo","all",.true.,"none",2
"generic_ergom","t_o2","t_o2",     "ocean_day3d%4yr%2mo","all",.true.,"none",2
"generic_ergom","t_dic","t_dic",     "ocean_day3d%4yr%2mo","all",.true.,"none",2
"generic_ergom","t_nh4","t_nh4",     "ocean_day3d%4yr%2mo","all",.true.,"none",2
"generic_ergom","t_no3","t_no3",     "ocean_day3d%4yr%2mo","all",.true.,"none",2
"generic_ergom","t_po4","t_po4",     "ocean_day3d%4yr%2mo","all",.true.,"none",2
"generic_ergom","t_spp","t_spp",     "ocean_day3d%4yr%2mo","all",.true.,"none",2
"generic_ergom","t_zoo","t_zoo",     "ocean_day3d%4yr%2mo","all",.true.,"none",2
"generic_ergom","t_h2s","t_h2s",     "ocean_day3d%4yr%2mo","all",.true.,"none",2
"generic_ergom","t_sul","t_sul",     "ocean_day3d%4yr%2mo","all",.true.,"none",2
"generic_ergom","t_alk","t_alk",     "ocean_day3d%4yr%2mo","all",.true.,"none",2
"generic_ergom","t_ipw","t_ipw",     "ocean_day3d%4yr%2mo","all",.true.,"none",2
"generic_ergom","t_lpp","t_lpp",     "ocean_day3d%4yr%2mo","all",.true.,"none",2
"generic_ergom","t_cya","t_cya",     "ocean_day3d%4yr%2mo","all",.true.,"none",2
"generic_ergom","t_det","t_det",     "ocean_day3d%4yr%2mo","all",.true.,"none",2
"generic_ergom","t_don","t_don",     "ocean_day3d%4yr%2mo","all",.true.,"none",2
"generic_ergom","t_poc","t_poc",   "ocean_day3d%4yr%2mo","all",.true.,"none",2
# biomodel 2d variables
"generic_ergom","t_sed_1","t_sed_1", "ocean_day3d%4yr%2mo", "all",.true.,"none",2
"generic_ergom","t_sed_2","t_sed_2", "ocean_day3d%4yr%2mo", "all",.true.,"none",2
"generic_ergom","t_ips_1","t_ips_1", "ocean_day3d%4yr%2mo", "all",.true.,"none",2
"generic_ergom","t_ips_2","t_ips_2", "ocean_day3d%4yr%2mo", "all",.true.,"none",2
# diagnostic tracer
"generic_ergom","chl","chl",                     "ocean_day3d%4yr%2mo", "all",.true.,"none",2
"generic_ergom","opacity_water","opacity_water", "ocean_day3d%4yr%2mo", "all",.true.,"none",2
"generic_ergom","opacity_bio","opacity_bio",     "ocean_day3d%4yr%2mo", "all",.true.,"none",2
#======================================================================================
# transports
#======================================================================================
"ocean_model","geolon_t","geolon_t",             "ocean_trps%4yr%2mo" ,"all",.false.,"none",2
"ocean_model","geolat_t","geolat_t",             "ocean_trps%4yr%2mo" ,"all",.false.,"none",2
"ocean_model","geolon_c","geolon_c",             "ocean_trps%4yr%2mo" ,"all",.false.,"none",2
"ocean_model","geolat_c","geolat_c",             "ocean_trps%4yr%2mo" ,"all",.false.,"none",2
"ocean_model","area_t","area_t",                 "ocean_trps%4yr%2mo" ,"all",.false.,"none",2
"ocean_model","area_u","area_u",                 "ocean_trps%4yr%2mo" ,"all",.false.,"none",2
"ocean_model","ht","ht",                         "ocean_trps%4yr%2mo" ,"all",.false.,"none",2
"ocean_model","hu","hu",                         "ocean_trps%4yr%2mo" ,"all",.false.,"none",2
# transports
"ocean_model","tx_trans",        "tx_trans",      "ocean_trps%4yr%2mo", "all",.true.,"none",2
"ocean_model","ty_trans",        "ty_trans",      "ocean_trps%4yr%2mo", "all",.true.,"none",2
"ocean_model","salt_xflux_adv",  "salt_xflux_adv","ocean_trps%4yr%2mo", "all",.true.,"none",2
"ocean_model","salt_yflux_adv",  "salt_yflux_adv","ocean_trps%4yr%2mo", "all",.true.,"none",2
"ocean_model","salt_xflux_diff", "salt_xflux_dif","ocean_trps%4yr%2mo", "all",.true.,"none",2
"ocean_model","salt_yflux_diff", "salt_yflux_dif","ocean_trps%4yr%2mo", "all",.true.,"none",2
"ocean_model","t_o2_xflux_adv",  "t_o2_xflux_adv","ocean_trps%4yr%2mo", "all",.true.,"none",2
"ocean_model","t_o2_yflux_adv",  "t_o2_yflux_adv","ocean_trps%4yr%2mo", "all",.true.,"none",2
"ocean_model","t_o2_xflux_diff", "t_o2_xflux_dif","ocean_trps%4yr%2mo", "all",.true.,"none",2
"ocean_model","t_o2_yflux_diff", "t_o2_yflux_dif","ocean_trps%4yr%2mo", "all",.true.,"none",2
"ocean_model","t_no3_xflux_adv", "t_no3_xflux_adv","ocean_trps%4yr%2mo", "all",.true.,"none",2
"ocean_model","t_no3_yflux_adv", "t_no3_yflux_adv","ocean_trps%4yr%2mo", "all",.true.,"none",2
"ocean_model","t_no3_xflux_diff","t_no3_xflux_dif","ocean_trps%4yr%2mo", "all",.true.,"none",2
"ocean_model","t_no3_yflux_diff","t_no3_yflux_dif","ocean_trps%4yr%2mo", "all",.true.,"none",2
"ocean_model","t_nh4_xflux_adv", "t_nh4_xflux_adv","ocean_trps%4yr%2mo", "all",.true.,"none",2
"ocean_model","t_nh4_yflux_adv", "t_nh4_yflux_adv","ocean_trps%4yr%2mo", "all",.true.,"none",2
"ocean_model","t_nh4_xflux_diff","t_nh4_xflux_dif","ocean_trps%4yr%2mo", "all",.true.,"none",2
"ocean_model","t_nh4_yflux_diff","t_nh4_yflux_dif","ocean_trps%4yr%2mo", "all",.true.,"none",2
"ocean_model","t_po4_xflux_adv", "t_po4_xflux_adv","ocean_trps%4yr%2mo", "all",.true.,"none",2
"ocean_model","t_po4_yflux_adv", "t_po4_yflux_adv","ocean_trps%4yr%2mo", "all",.true.,"none",2
"ocean_model","t_po4_xflux_diff","t_po4_xflux_dif","ocean_trps%4yr%2mo", "all",.true.,"none",2
"ocean_model","t_po4_yflux_diff","t_po4_yflux_dif","ocean_trps%4yr%2mo", "all",.true.,"none",2
"ocean_model","t_det_xflux_adv", "t_det_xflux_adv","ocean_trps%4yr%2mo", "all",.true.,"none",2
"ocean_model","t_det_yflux_adv", "t_det_yflux_adv","ocean_trps%4yr%2mo", "all",.true.,"none",2
"ocean_model","t_det_xflux_diff","t_det_xflux_dif","ocean_trps%4yr%2mo", "all",.true.,"none",2
"ocean_model","t_det_yflux_diff","t_det_yflux_dif","ocean_trps%4yr%2mo", "all",.true.,"none",2
#======================================================================================
# ERGOM biogeochemical fluxes
#======================================================================================
# biomodel 3d process rates
"generic_ergom","p_no3_assim_lpp","p_no3_assim_lpp",        "ergom_flux3d%4yr%2mo","all",.true.,"none",2
"generic_ergom","p_nh4_assim_lpp","p_nh4_assim_lpp",        "ergom_flux3d%4yr%2mo","all",.true.,"none",2
"generic_ergom","p_no3_assim_spp","p_no3_assim_spp",        "ergom_flux3d%4yr%2mo","all",.true.,"none",2
"generic_ergom","p_nh4_assim_spp","p_nh4_assim_spp",        "ergom_flux3d%4yr%2mo","all",.true.,"none",2
"generic_ergom","p_n2_assim_cya ","p_n2_assim_cya ",        "ergom_flux3d%4yr%2mo","all",.true.,"none",2
"generic_ergom","p_assim_lpp_poc","p_assim_lpp_poc",        "ergom_flux3d%4yr%2mo","all",.true.,"none",2
"generic_ergom","p_assim_spp_poc","p_assim_spp_poc",        "ergom_flux3d%4yr%2mo","all",.true.,"none",2
"generic_ergom","p_assim_cya_poc","p_assim_cya_poc",        "ergom_flux3d%4yr%2mo","all",.true.,"none",2
"generic_ergom","p_lpp_resp_nh4", "p_lpp_resp_nh4",         "ergom_flux3d%4yr%2mo","all",.true.,"none",2
"generic_ergom","p_spp_resp_nh4", "p_spp_resp_nh4",         "ergom_flux3d%4yr%2mo","all",.true.,"none",2
"generic_ergom","p_cya_resp_nh4", "p_cya_resp_nh4",         "ergom_flux3d%4yr%2mo","all",.true.,"none",2
"generic_ergom","p_zoo_resp_nh4", "p_zoo_resp_nh4",         "ergom_flux3d%4yr%2mo","all",.true.,"none",2
"generic_ergom","p_lpp_graz_zoo", "p_lpp_graz_zoo",         "ergom_flux3d%4yr%2mo","all",.true.,"none",2
"generic_ergom","p_spp_graz_zoo", "p_spp_graz_zoo",         "ergom_flux3d%4yr%2mo","all",.true.,"none",2
"generic_ergom","p_cya_graz_zoo", "p_cya_graz_zoo",         "ergom_flux3d%4yr%2mo","all",.true.,"none",2
"generic_ergom","p_lpp_mort_det", "p_lpp_mort_det",         "ergom_flux3d%4yr%2mo","all",.true.,"none",2
"generic_ergom","p_spp_mort_det", "p_spp_mort_det",         "ergom_flux3d%4yr%2mo","all",.true.,"none",2
"generic_ergom","p_cya_mort_det", "p_cya_mort_det",         "ergom_flux3d%4yr%2mo","all",.true.,"none",2
"generic_ergom","p_zoo_mort_det", "p_zoo_mort_det",         "ergom_flux3d%4yr%2mo","all",.true.,"none",2
"generic_ergom","p_poc_resp",     "p_poc_resp",             "ergom_flux3d%4yr%2mo","all",.true.,"none",2
"generic_ergom","p_poc_denit",    "p_poc_denit",            "ergom_flux3d%4yr%2mo","all",.true.,"none",2
"generic_ergom","p_poc_sulf",     "p_poc_sulf",             "ergom_flux3d%4yr%2mo","all",.true.,"none",2
"generic_ergom","p_nh4_nit_no3",  "p_nh4_nit_no3",          "ergom_flux3d%4yr%2mo","all",.true.,"none",2
"generic_ergom","p_h2s_oxo2_sul", "p_h2s_oxo2_sul",         "ergom_flux3d%4yr%2mo","all",.true.,"none",2
"generic_ergom","p_h2s_oxno3_sul","p_h2s_oxno3_sul",        "ergom_flux3d%4yr%2mo","all",.true.,"none",2
"generic_ergom","p_sul_oxo2_so4", "p_sul_oxo2_so4",         "ergom_flux3d%4yr%2mo","all",.true.,"none",2
"generic_ergom","p_sul_oxno3_so4","p_sul_oxno3_so4",        "ergom_flux3d%4yr%2mo","all",.true.,"none",2
"generic_ergom","p_det_denit_nh4","p_det_denit_nh4",        "ergom_flux3d%4yr%2mo","all",.true.,"none",2
"generic_ergom","p_det_resp_nh4","p_det_resp_nh4",          "ergom_flux3d%4yr%2mo","all",.true.,"none",2
"generic_ergom","p_det_sulf_nh4","p_det_sulf_nh4",          "ergom_flux3d%4yr%2mo","all",.true.,"none",2
#======================================================================================
# ocean sediment fluxes
#======================================================================================
"generic_ergom","p_sed_resp_nh4",   "p_sed_resp_nh4",        "ergom_flux_sed%4yr%2mo","all",.true.,"none",2
"generic_ergom","p_sed_sulf_nh4",   "p_sed_sulf_nh4",        "ergom_flux_sed%4yr%2mo","all",.true.,"none",2
"generic_ergom","p_sed_denit_nh4",  "p_sed_denit_nh4",       "ergom_flux_sed%4yr%2mo","all",.true.,"none",2
"generic_ergom","p_nh4_nitdenit_n2","p_nh4_nitdenit_n2",     "ergom_flux_sed%4yr%2mo","all",.true.,"none",2
"generic_ergom","p_ips_burial",     "p_ips_burial",          "ergom_flux_sed%4yr%2mo","all",.true.,"none",2
"generic_ergom","p_sed_burial",     "p_sed_burial",          "ergom_flux_sed%4yr%2mo","all",.true.,"none",2
"generic_ergom","p_po4_retent_ips", "p_po4_retent_ips",      "ergom_flux_sed%4yr%2mo","all",.true.,"none",2
"generic_ergom","p_ips_liber_po4",  "p_ips_liber_po4",       "ergom_flux_sed%4yr%2mo","all",.true.,"none",2
"generic_ergom","p_det_sedi_sed",   "p_det_sedi_sed",        "ergom_flux_sed%4yr%2mo","all",.true.,"none",2
"generic_ergom","p_ipw_sedi_ips",   "p_ipw_sedi_ips",        "ergom_flux_sed%4yr%2mo","all",.true.,"none",2
"generic_ergom","p_sed_ero_det",    "p_sed_ero_det",         "ergom_flux_sed%4yr%2mo","all",.true.,"none",2
"generic_ergom","p_ips_ero_ipw",    "p_ips_ero_ipw",         "ergom_flux_sed%4yr%2mo","all",.true.,"none",2
"generic_ergom","p_sed_biores_det", "p_sed_biores_det",      "ergom_flux_sed%4yr%2mo","all",.true.,"none",2
#======================================================================================
# ERGOM surface fluxes
#======================================================================================
# river input
"generic_ergom","runoff_flux_t_dic","runoff_flux_t_dic", "ergom_flux_surf%4yr%2mo", "all",.true.,"none",2
"generic_ergom","runoff_flux_t_nh4","runoff_flux_t_nh4", "ergom_flux_surf%4yr%2mo", "all",.true.,"none",2
"generic_ergom","runoff_flux_t_no3","runoff_flux_t_no3", "ergom_flux_surf%4yr%2mo", "all",.true.,"none",2
"generic_ergom","runoff_flux_t_po4","runoff_flux_t_po4", "ergom_flux_surf%4yr%2mo", "all",.true.,"none",2
"generic_ergom","runoff_flux_t_alk","runoff_flux_t_alk", "ergom_flux_surf%4yr%2mo", "all",.true.,"none",2
"generic_ergom","runoff_flux_t_det","runoff_flux_t_det", "ergom_flux_surf%4yr%2mo", "all",.true.,"none",2
#"generic_ergom","runoff_flux_t_o2", "runoff_flux_t_o2",  "ergom_flux_surf%4yr%2mo", "all",.true.,"none",2
# atmospheric deposition as wet deposition
"generic_ergom","dep_wet_t_nh4","dep_wet_t_nh4",         "ergom_flux_surf%4yr%2mo", "all",.true.,"none",2
"generic_ergom","dep_wet_t_no3","dep_wet_t_no3",         "ergom_flux_surf%4yr%2mo", "all",.true.,"none",2
"generic_ergom","dep_wet_t_po4","dep_wet_t_po4",         "ergom_flux_surf%4yr%2mo", "all",.true.,"none",2
# diffusive fluxes handled in MOM as dry depositions, var names look like diffusive fluxes
"generic_ergom","diffusive_flux_t_no3","diffusive_flux_t_no3", "ergom_flux_surf%4yr%2mo", "all",.true.,"none",2
"generic_ergom","diffusive_flux_t_po4","diffusive_flux_t_po4", "ergom_flux_surf%4yr%2mo", "all",.true.,"none",2
"generic_ergom","t_dic_stf",           "sfc_flux_t_dic ",      "ergom_flux_surf%4yr%2mo", "all",.true.,"none",2
#======================================================================================
# OBC diagnostics
#======================================================================================
"ocean_model"  ,"obc_salt_flux_west","obc_salt_flux_west", "ocean_obc_w%4yr%2mo", "all",.true.,"none",2
"ocean_model"  ,"obc_t_no3_flux_west","obc_t_no3_flux_west"  , "ocean_obc_w%4yr%2mo", "all",.true.,"none",2
"ocean_model"  ,"obc_t_nh4_flux_west","obc_t_nh4_flux_west"  , "ocean_obc_w%4yr%2mo", "all",.true.,"none",2
"ocean_model"  ,"obc_t_po4_flux_west","obc_t_po4_flux_west"  , "ocean_obc_w%4yr%2mo", "all",.true.,"none",2
"ocean_model"  ,"obc_t_o2_flux_west","obc_t_o2_flux_west"    , "ocean_obc_w%4yr%2mo", "all",.true.,"none",2
"ocean_model"  ,"obc_t_dic_flux_west","obc_t_dic_flux_west"    , "ocean_obc_w%4yr%2mo", "all",.true.,"none",2
"ocean_model"  ,"obc_t_alk_flux_west","obc_t_alk_flux_west"    , "ocean_obc_w%4yr%2mo", "all",.true.,"none",2
#======================================================================================
# ICE DIAGNOSTICS:
# time averages 
#=============================================================================
"ice_model", "FRAZIL",     "FRAZIL",     "ice_day%4yr%2mo", "all", .true., "none", 2
"ice_model", "CN",         "CN",         "ice_day%4yr%2mo", "all", .true., "none", 2
"ice_model", "MI",         "MI",         "ice_day%4yr%2mo", "all", .true., "none", 2
"ice_model", "HI",         "HI",         "ice_day%4yr%2mo", "all", .true., "none", 2
"ice_model", "HS",         "HS",         "ice_day%4yr%2mo", "all", .true., "none", 2
"ice_model", "TS",         "TS",         "ice_day%4yr%2mo", "all", .true., "none", 2
"ice_model", "T1",         "T1",         "ice_day%4yr%2mo", "all", .true., "none", 2
"ice_model", "T2",         "T2",         "ice_day%4yr%2mo", "all", .true., "none", 2
"ice_model", "ALB",        "ALB",        "ice_day%4yr%2mo", "all", .true., "none", 2
"ice_model", "SW",         "SW",         "ice_day%4yr%2mo", "all", .true., "none", 2
"ice_model", "LW",         "LW",         "ice_day%4yr%2mo", "all", .true., "none", 2
"ice_model", "SH",         "SH",         "ice_day%4yr%2mo", "all", .true., "none", 2
"ice_model", "LH",         "LH",         "ice_day%4yr%2mo", "all", .true., "none", 2
"ice_model", "TMELT",      "TMELT",      "ice_day%4yr%2mo", "all", .true., "none", 2
"ice_model", "BMELT",      "BMELT",      "ice_day%4yr%2mo", "all", .true., "none", 2
#"ice_model", "BHEAT",      "BHEAT",      "ice_day%4yr%2mo", "all", .true., "none", 2
"ice_model", "UI",         "UI",         "ice_day%4yr%2mo", "all", .true., "none", 2
"ice_model", "VI",         "VI",         "ice_day%4yr%2mo", "all", .true., "none", 2
"ice_model", "SLP",        "SLP",        "ice_day%4yr%2mo", "all", .true., "none", 2
"ice_model", "SST",        "SST",        "ice_day%4yr%2mo", "all", .true., "none", 2
"ice_model", "SSS",        "SSS",        "ice_day%4yr%2mo", "all", .true., "none", 2
"ice_model", "SSH",        "SSH",        "ice_day%4yr%2mo", "all", .true., "none", 2
"ice_model", "UO",         "UO",         "ice_day%4yr%2mo", "all", .true., "none", 2
"ice_model", "VO",         "VO",         "ice_day%4yr%2mo", "all", .true., "none", 2
"ice_model", "SNOWFL",     "SNOWFL",     "ice_day%4yr%2mo", "all", .true., "none", 2
"ice_model", "RAIN",       "RAIN",       "ice_day%4yr%2mo", "all", .true., "none", 2
"ice_model", "EVAP",       "EVAP",       "ice_day%4yr%2mo", "all", .true., "none", 2
#"ice_model", "CALVING",    "CALVING",    "ice_day%4yr%2mo", "all", .true., "none", 2
"ice_model", "RUNOFF",     "RUNOFF",     "ice_day%4yr%2mo", "all", .true., "none", 2
"ice_model", "CELL_AREA",  "CELL_AREA",  "ice_day%4yr%2mo", "all", .true., "none", 2
#"ice_model", "GEOLON",     "GEOLON",     "ice_day%4yr%2mo", "all", .true., "none", 2
#"ice_model", "GEOLAT",     "GEOLAT",     "ice_day%4yr%2mo", "all", .true., "none", 2
#"ice_model", "IX_TRANS",   "IX_TRANS",   "ice_day%4yr%2mo", "all", .true., "none", 2
#"ice_model", "IY_TRANS",   "IY_TRANS",   "ice_day%4yr%2mo", "all", .true., "none", 2
#"ice_model", "SALTF",      "SALTF",      "ice_day%4yr%2mo", "all", .true., "none", 2
#"ice_model", "SINROT",     "SINROT",     "ice_day%4yr%2mo", "all", .true., "none", 2
#"ice_model", "COSROT",     "COSROT",     "ice_day%4yr%2mo", "all", .true., "none", 2
"ice_model", "lwdn",     "lwdn",     "ice_day%4yr%2mo", "all", .true., "none", 2
"ice_model", "swdn",     "swdn",     "ice_day%4yr%2mo", "all", .true., "none", 2
"ice_model", "FA_X",     "FA_X",     "ice_day%4yr%2mo", "all", .true., "none", 2
"ice_model", "FA_Y",     "FA_Y",     "ice_day%4yr%2mo", "all", .true., "none", 2
"ice_model", "U_STAR",     "U_STAR",   "ice_day%4yr%2mo"  , "all", .true., "none", 2
"ice_model", "RUNOFF_HFLX",     "RUNOFF_HTFL",     "ice_day%4yr%2mo", "all", .true., "none", 2
"ice_model", "CALVING_HFLX",     "CALVING_HTFL",     "ice_day%4yr%2mo", "all", .true., "none", 2
"ice_model", "SW_NIR_DIR",     "SW_NIR_DIR",     "ice_day%4yr%2mo", "all", .true., "none", 2
"ice_model", "SW_NIR_DIF",     "SW_NIR_DIF",     "ice_day%4yr%2mo", "all", .true., "none", 2
"ice_model", "SW_VIS_DIR",     "SW_VIS_DIR",     "ice_day%4yr%2mo", "all", .true., "none", 2
"ice_model", "SW_VIS_DIR",     "SW_VIS_DIF",     "ice_day%4yr%2mo", "all", .true., "none", 2
#===============================================================================
#
#  FORMATS FOR FILE ENTRIES (not all input values are used)
#  ------------------------
#
#"file_name", output_freq, "output_units", format, "time_units", "long_name"
#
#
#   output_freq:  > 0  output frequency in "output_units"
#                 = 0  output frequency every time step
#                 =-1  output frequency at end of run
#
#   output_units = units used for output frequency
#                  (years, months, days, minutes, hours, seconds)
#
#   time_units   = units used to label the time axis
#                  (days, minutes, hours, seconds)
#
#
#  FORMAT FOR FIELD ENTRIES (not all input values are used)
#  ------------------------
#
#"module_name", "field_name", "output_name", "file_name", "time_sampling", time_avg, "other_opts", packing
#
#   time_avg = .true. or .false. or min or max
#
#   packing  = 1  double precision
#            = 2  float
#            = 4  packed 16-bit integers
#            = 8  packed 1-byte (not tested?)
#------------
# xbt section
#------------
# XBT-Station GreatBelt 
"ocean_model    ", "dzt              ", "dzt              ","_GreatBelt%4yr%2mo", "all",.true.,"10.8667 10.8667 55.5167 55.5167 0 28",2  
"ocean_model    ", "pme_net          ", "pme_net          ","_GreatBelt%4yr%2mo", "all",.true.,"10.8667 10.8667 55.5167 55.5167 0 28",2  
"ocean_model    ", "tau_x            ", "tau_x            ","_GreatBelt%4yr%2mo", "all",.true.,"10.8667 10.8667 55.5167 55.5167 0 28",2  
"ocean_model    ", "tau_y            ", "tau_y            ","_GreatBelt%4yr%2mo", "all",.true.,"10.8667 10.8667 55.5167 55.5167 0 28",2  
"ocean_model    ", "swflx            ", "swflx            ","_GreatBelt%4yr%2mo", "all",.true.,"10.8667 10.8667 55.5167 55.5167 0 28",2  
"ocean_model    ", "lw_heat          ", "lw_heat          ","_GreatBelt%4yr%2mo", "all",.true.,"10.8667 10.8667 55.5167 55.5167 0 28",2  
"ocean_model    ", "sens_heat        ", "sens_heat        ","_GreatBelt%4yr%2mo", "all",.true.,"10.8667 10.8667 55.5167 55.5167 0 28",2  
"ocean_model    ", "evap_heat        ", "evap_heat        ","_GreatBelt%4yr%2mo", "all",.true.,"10.8667 10.8667 55.5167 55.5167 0 28",2  
"ocean_model    ", "mld              ", "mld              ","_GreatBelt%4yr%2mo", "all",.true.,"10.8667 10.8667 55.5167 55.5167 0 28",2  
"ocean_model    ", "hblt             ", "hblt             ","_GreatBelt%4yr%2mo", "all",.true.,"10.8667 10.8667 55.5167 55.5167 0 28",2  