"diag_tracers","ocean_mod","frazil"

restart_file = ocean_frazil.res.nc
/

"prog_tracers","ocean_mod","temp"

horizontal-advection-scheme = mdfl_sweby
vertical-advection-scheme = mdfl_sweby
restart_file = ocean_temp_salt.res.nc
/

"prog_tracers","ocean_mod","salt"

horizontal-advection-scheme = mdfl_sweby
vertical-advection-scheme = mdfl_sweby
restart_file = ocean_temp_salt.res.nc
/

 "TRACER", "atmos_mod", "sphum"
           "longname",     "specific humidity"
           "units",        "kg/kg"
           "profile_type", "fixed", "surface_value=3.e-6" /

# sphum must be present on land as well
 "TRACER", "land_mod",     "sphum"
           "longname",     "specific humidity"
           "units",        "kg/kg" /

# enable carbon flux
 "TRACER", "atmos_mod",    "co2"
           "longname",     "carbon dioxide conc."
           "units",        "mol/mol" /

 "TRACER", "land_mod",     "co2"
           "longname",     "carbon dioxide conc."
           "units",        "mol/mol" /

"tracer_packages","ocean_mod","generic_ergom"
names = _
horizontal-advection-scheme = mdfl_sweby
vertical-advection-scheme = mdfl_sweby
min_tracer_limit=0.0
/
